
Version,
  9.6;                                    !- Version Identifier

Timestep,
  6;                                      !- Number of Timesteps per Hour

LifeCycleCost:Parameters,
  Life Cycle Cost Parameters,             !- Name
  EndOfYear,                              !- Discounting Convention
  ConstantDollar,                         !- Inflation Approach
  0.03,                                   !- Real Discount Rate
  ,                                       !- Nominal Discount Rate
  ,                                       !- Inflation
  ,                                       !- Base Date Month
  2011,                                   !- Base Date Year
  ,                                       !- Service Date Month
  2011,                                   !- Service Date Year
  25,                                     !- Length of Study Period in Years
  ,                                       !- Tax rate
  None;                                   !- Depreciation Method

LifeCycleCost:UsePriceEscalation,
  West  Commercial-Electricity,           !- Name
  Electricity,                            !- Resource
  2011,                                   !- Escalation Start Year
  January,                                !- Escalation Start Month
  0.9987,                                 !- Year Escalation 1
  0.9931,                                 !- Year Escalation 2
  0.9879,                                 !- Year Escalation 3
  0.9833,                                 !- Year Escalation 4
  0.9667,                                 !- Year Escalation 5
  0.9533,                                 !- Year Escalation 6
  0.9432,                                 !- Year Escalation 7
  0.9350,                                 !- Year Escalation 8
  0.9298,                                 !- Year Escalation 9
  0.9256,                                 !- Year Escalation 10
  0.9275,                                 !- Year Escalation 11
  0.9305,                                 !- Year Escalation 12
  0.9327,                                 !- Year Escalation 13
  0.9367,                                 !- Year Escalation 14
  0.9406,                                 !- Year Escalation 15
  0.9347,                                 !- Year Escalation 16
  0.9269,                                 !- Year Escalation 17
  0.9226,                                 !- Year Escalation 18
  0.9145,                                 !- Year Escalation 19
  0.9096,                                 !- Year Escalation 20
  0.9060,                                 !- Year Escalation 21
  0.9024,                                 !- Year Escalation 22
  0.9024,                                 !- Year Escalation 23
  0.9079,                                 !- Year Escalation 24
  0.9089,                                 !- Year Escalation 25
  0.9076,                                 !- Year Escalation 26
  0.9063,                                 !- Year Escalation 27
  0.9050,                                 !- Year Escalation 28
  0.9037,                                 !- Year Escalation 29
  0.9027;                                 !- Year Escalation 30

LifeCycleCost:UsePriceEscalation,
  West  Commercial-Distillate Oil,        !- Name
  FuelOilNo1,                             !- Resource
  2011,                                   !- Escalation Start Year
  January,                                !- Escalation Start Month
  0.9018,                                 !- Year Escalation 1
  0.8817,                                 !- Year Escalation 2
  0.9023,                                 !- Year Escalation 3
  0.9229,                                 !- Year Escalation 4
  0.9532,                                 !- Year Escalation 5
  0.9830,                                 !- Year Escalation 6
  1.0108,                                 !- Year Escalation 7
  1.0396,                                 !- Year Escalation 8
  1.0632,                                 !- Year Escalation 9
  1.0879,                                 !- Year Escalation 10
  1.1136,                                 !- Year Escalation 11
  1.1285,                                 !- Year Escalation 12
  1.1501,                                 !- Year Escalation 13
  1.1645,                                 !- Year Escalation 14
  1.1769,                                 !- Year Escalation 15
  1.1933,                                 !- Year Escalation 16
  1.2041,                                 !- Year Escalation 17
  1.2185,                                 !- Year Escalation 18
  1.2262,                                 !- Year Escalation 19
  1.2288,                                 !- Year Escalation 20
  1.2298,                                 !- Year Escalation 21
  1.2303,                                 !- Year Escalation 22
  1.2355,                                 !- Year Escalation 23
  1.2437,                                 !- Year Escalation 24
  1.2478,                                 !- Year Escalation 25
  1.2509,                                 !- Year Escalation 26
  1.2545,                                 !- Year Escalation 27
  1.2576,                                 !- Year Escalation 28
  1.2612,                                 !- Year Escalation 29
  1.2643;                                 !- Year Escalation 30

LifeCycleCost:UsePriceEscalation,
  West  Commercial-Residual Oil,          !- Name
  FuelOilNo2,                             !- Resource
  2011,                                   !- Escalation Start Year
  January,                                !- Escalation Start Month
  1.1361,                                 !- Year Escalation 1
  1.2046,                                 !- Year Escalation 2
  1.2485,                                 !- Year Escalation 3
  1.2924,                                 !- Year Escalation 4
  1.3486,                                 !- Year Escalation 5
  1.3898,                                 !- Year Escalation 6
  1.4249,                                 !- Year Escalation 7
  1.4548,                                 !- Year Escalation 8
  1.4881,                                 !- Year Escalation 9
  1.5162,                                 !- Year Escalation 10
  1.5417,                                 !- Year Escalation 11
  1.5698,                                 !- Year Escalation 12
  1.5900,                                 !- Year Escalation 13
  1.6111,                                 !- Year Escalation 14
  1.6330,                                 !- Year Escalation 15
  1.6497,                                 !- Year Escalation 16
  1.6620,                                 !- Year Escalation 17
  1.6725,                                 !- Year Escalation 18
  1.6752,                                 !- Year Escalation 19
  1.6752,                                 !- Year Escalation 20
  1.6558,                                 !- Year Escalation 21
  1.6585,                                 !- Year Escalation 22
  1.6585,                                 !- Year Escalation 23
  1.6655,                                 !- Year Escalation 24
  1.6716,                                 !- Year Escalation 25
  1.6778,                                 !- Year Escalation 26
  1.6831,                                 !- Year Escalation 27
  1.6892,                                 !- Year Escalation 28
  1.6945,                                 !- Year Escalation 29
  1.6997;                                 !- Year Escalation 30

LifeCycleCost:UsePriceEscalation,
  West  Commercial-Natural gas,           !- Name
  NaturalGas,                             !- Resource
  2011,                                   !- Escalation Start Year
  January,                                !- Escalation Start Month
  0.9886,                                 !- Year Escalation 1
  0.9671,                                 !- Year Escalation 2
  0.9421,                                 !- Year Escalation 3
  0.9410,                                 !- Year Escalation 4
  0.9512,                                 !- Year Escalation 5
  0.9637,                                 !- Year Escalation 6
  0.9807,                                 !- Year Escalation 7
  1.0000,                                 !- Year Escalation 8
  1.0295,                                 !- Year Escalation 9
  1.0556,                                 !- Year Escalation 10
  1.0749,                                 !- Year Escalation 11
  1.0919,                                 !- Year Escalation 12
  1.1112,                                 !- Year Escalation 13
  1.1283,                                 !- Year Escalation 14
  1.1430,                                 !- Year Escalation 15
  1.1657,                                 !- Year Escalation 16
  1.1827,                                 !- Year Escalation 17
  1.1952,                                 !- Year Escalation 18
  1.2066,                                 !- Year Escalation 19
  1.2179,                                 !- Year Escalation 20
  1.2327,                                 !- Year Escalation 21
  1.2520,                                 !- Year Escalation 22
  1.2724,                                 !- Year Escalation 23
  1.2963,                                 !- Year Escalation 24
  1.3144,                                 !- Year Escalation 25
  1.3314,                                 !- Year Escalation 26
  1.3473,                                 !- Year Escalation 27
  1.3644,                                 !- Year Escalation 28
  1.3825,                                 !- Year Escalation 29
  1.4007;                                 !- Year Escalation 30

LifeCycleCost:UsePriceEscalation,
  West  Commercial-Coal,                  !- Name
  Coal,                                   !- Resource
  2011,                                   !- Escalation Start Year
  January,                                !- Escalation Start Month
  0.9974,                                 !- Year Escalation 1
  1.0078,                                 !- Year Escalation 2
  1.0156,                                 !- Year Escalation 3
  1.0156,                                 !- Year Escalation 4
  1.0182,                                 !- Year Escalation 5
  1.0260,                                 !- Year Escalation 6
  1.0313,                                 !- Year Escalation 7
  1.0339,                                 !- Year Escalation 8
  1.0365,                                 !- Year Escalation 9
  1.0469,                                 !- Year Escalation 10
  1.0573,                                 !- Year Escalation 11
  1.0625,                                 !- Year Escalation 12
  1.0729,                                 !- Year Escalation 13
  1.0781,                                 !- Year Escalation 14
  1.0833,                                 !- Year Escalation 15
  1.0885,                                 !- Year Escalation 16
  1.0964,                                 !- Year Escalation 17
  1.1094,                                 !- Year Escalation 18
  1.1146,                                 !- Year Escalation 19
  1.1224,                                 !- Year Escalation 20
  1.1276,                                 !- Year Escalation 21
  1.1354,                                 !- Year Escalation 22
  1.1406,                                 !- Year Escalation 23
  1.1406,                                 !- Year Escalation 24
  1.1432,                                 !- Year Escalation 25
  1.1458,                                 !- Year Escalation 26
  1.1484,                                 !- Year Escalation 27
  1.1484,                                 !- Year Escalation 28
  1.1510,                                 !- Year Escalation 29
  1.1536;                                 !- Year Escalation 30

Building,
  OfficeSmall,                            !- Name
  0,                                      !- North Axis {deg}
  City,                                   !- Terrain
  0.04,                                   !- Loads Convergence Tolerance Value {W}
  0.2,                                    !- Temperature Convergence Tolerance Value {deltaC}
  FullInteriorAndExterior,                !- Solar Distribution
  25,                                     !- Maximum Number of Warmup Days
  6;                                      !- Minimum Number of Warmup Days

Zone,
  Attic,                                  !- Name
  0,                                      !- Direction of Relative North {deg}
  0,                                      !- X Origin {m}
  0,                                      !- Y Origin {m}
  0,                                      !- Z Origin {m}
  ,                                       !- Type
  1,                                      !- Multiplier
  ,                                       !- Ceiling Height {m}
  ,                                       !- Volume {m3}
  ,                                       !- Floor Area {m2}
  ,                                       !- Zone Inside Convection Algorithm
  ,                                       !- Zone Outside Convection Algorithm
  No;                                     !- Part of Total Floor Area

BuildingSurface:Detailed,
  Attic_floor_core,                       !- Name
  Floor,                                  !- Surface Type
  nonres_roof_floor,                      !- Construction Name
  Attic,                                  !- Zone Name
  ,                                       !- Space Name
  Surface,                                !- Outside Boundary Condition
  Core_ZN_ceiling,                        !- Outside Boundary Condition Object
  NoSun,                                  !- Sun Exposure
  NoWind,                                 !- Wind Exposure
  ,                                       !- View Factor to Ground
  ,                                       !- Number of Vertices
  22.69, 13.46, 3.05,                     !- X,Y,Z Vertex 1 {m}
  22.69, 5, 3.05,                         !- X,Y,Z Vertex 2 {m}
  5, 5, 3.05,                             !- X,Y,Z Vertex 3 {m}
  5, 13.46, 3.05;                         !- X,Y,Z Vertex 4 {m}

BuildingSurface:Detailed,
  Attic_floor_perimeter_east,             !- Name
  Floor,                                  !- Surface Type
  nonres_roof_floor,                      !- Construction Name
  Attic,                                  !- Zone Name
  ,                                       !- Space Name
  Surface,                                !- Outside Boundary Condition
  Perimeter_ZN_2_ceiling,                 !- Outside Boundary Condition Object
  NoSun,                                  !- Sun Exposure
  NoWind,                                 !- Wind Exposure
  ,                                       !- View Factor to Ground
  ,                                       !- Number of Vertices
  27.69, 18.46, 3.05,                     !- X,Y,Z Vertex 1 {m}
  27.69, 0, 3.05,                         !- X,Y,Z Vertex 2 {m}
  22.69, 5, 3.05,                         !- X,Y,Z Vertex 3 {m}
  22.69, 13.46, 3.05;                     !- X,Y,Z Vertex 4 {m}

BuildingSurface:Detailed,
  Attic_floor_perimeter_north,            !- Name
  Floor,                                  !- Surface Type
  nonres_roof_floor,                      !- Construction Name
  Attic,                                  !- Zone Name
  ,                                       !- Space Name
  Surface,                                !- Outside Boundary Condition
  Perimeter_ZN_3_ceiling,                 !- Outside Boundary Condition Object
  NoSun,                                  !- Sun Exposure
  NoWind,                                 !- Wind Exposure
  ,                                       !- View Factor to Ground
  ,                                       !- Number of Vertices
  27.69, 18.46, 3.05,                     !- X,Y,Z Vertex 1 {m}
  22.69, 13.46, 3.05,                     !- X,Y,Z Vertex 2 {m}
  5, 13.46, 3.05,                         !- X,Y,Z Vertex 3 {m}
  0, 18.46, 3.05;                         !- X,Y,Z Vertex 4 {m}

BuildingSurface:Detailed,
  Attic_floor_perimeter_south,            !- Name
  Floor,                                  !- Surface Type
  nonres_roof_floor,                      !- Construction Name
  Attic,                                  !- Zone Name
  ,                                       !- Space Name
  Surface,                                !- Outside Boundary Condition
  Perimeter_ZN_1_ceiling,                 !- Outside Boundary Condition Object
  NoSun,                                  !- Sun Exposure
  NoWind,                                 !- Wind Exposure
  ,                                       !- View Factor to Ground
  ,                                       !- Number of Vertices
  22.69, 5, 3.05,                         !- X,Y,Z Vertex 1 {m}
  27.69, 0, 3.05,                         !- X,Y,Z Vertex 2 {m}
  0, 0, 3.05,                             !- X,Y,Z Vertex 3 {m}
  5, 5, 3.05;                             !- X,Y,Z Vertex 4 {m}

BuildingSurface:Detailed,
  Attic_floor_perimeter_west,             !- Name
  Floor,                                  !- Surface Type
  nonres_roof_floor,                      !- Construction Name
  Attic,                                  !- Zone Name
  ,                                       !- Space Name
  Surface,                                !- Outside Boundary Condition
  Perimeter_ZN_4_ceiling,                 !- Outside Boundary Condition Object
  NoSun,                                  !- Sun Exposure
  NoWind,                                 !- Wind Exposure
  ,                                       !- View Factor to Ground
  ,                                       !- Number of Vertices
  0, 18.46, 3.05,                         !- X,Y,Z Vertex 1 {m}
  5, 13.46, 3.05,                         !- X,Y,Z Vertex 2 {m}
  5, 5, 3.05,                             !- X,Y,Z Vertex 3 {m}
  0, 0, 3.05;                             !- X,Y,Z Vertex 4 {m}

BuildingSurface:Detailed,
  Attic_roof_east,                        !- Name
  Roof,                                   !- Surface Type
  AtticRoofDeck,                          !- Construction Name
  Attic,                                  !- Zone Name
  ,                                       !- Space Name
  Outdoors,                               !- Outside Boundary Condition
  ,                                       !- Outside Boundary Condition Object
  SunExposed,                             !- Sun Exposure
  WindExposed,                            !- Wind Exposure
  ,                                       !- View Factor to Ground
  ,                                       !- Number of Vertices
  18.46, 9.23, 6.33,                      !- X,Y,Z Vertex 1 {m}
  28.29, -0.6, 3.05,                      !- X,Y,Z Vertex 2 {m}
  28.29, 19.06, 3.05;                     !- X,Y,Z Vertex 3 {m}

BuildingSurface:Detailed,
  Attic_roof_north,                       !- Name
  Roof,                                   !- Surface Type
  AtticRoofDeck,                          !- Construction Name
  Attic,                                  !- Zone Name
  ,                                       !- Space Name
  Outdoors,                               !- Outside Boundary Condition
  ,                                       !- Outside Boundary Condition Object
  SunExposed,                             !- Sun Exposure
  WindExposed,                            !- Wind Exposure
  ,                                       !- View Factor to Ground
  ,                                       !- Number of Vertices
  18.46, 9.23, 6.33,                      !- X,Y,Z Vertex 1 {m}
  28.29, 19.06, 3.05,                     !- X,Y,Z Vertex 2 {m}
  -0.6, 19.06, 3.05,                      !- X,Y,Z Vertex 3 {m}
  9.23, 9.23, 6.33;                       !- X,Y,Z Vertex 4 {m}

BuildingSurface:Detailed,
  Attic_roof_south,                       !- Name
  Roof,                                   !- Surface Type
  AtticRoofDeck,                          !- Construction Name
  Attic,                                  !- Zone Name
  ,                                       !- Space Name
  Outdoors,                               !- Outside Boundary Condition
  ,                                       !- Outside Boundary Condition Object
  SunExposed,                             !- Sun Exposure
  WindExposed,                            !- Wind Exposure
  ,                                       !- View Factor to Ground
  ,                                       !- Number of Vertices
  9.23, 9.23, 6.33,                       !- X,Y,Z Vertex 1 {m}
  -0.6, -0.6, 3.05,                       !- X,Y,Z Vertex 2 {m}
  28.29, -0.6, 3.05,                      !- X,Y,Z Vertex 3 {m}
  18.46, 9.23, 6.33;                      !- X,Y,Z Vertex 4 {m}

BuildingSurface:Detailed,
  Attic_roof_west,                        !- Name
  Roof,                                   !- Surface Type
  AtticRoofDeck,                          !- Construction Name
  Attic,                                  !- Zone Name
  ,                                       !- Space Name
  Outdoors,                               !- Outside Boundary Condition
  ,                                       !- Outside Boundary Condition Object
  SunExposed,                             !- Sun Exposure
  WindExposed,                            !- Wind Exposure
  ,                                       !- View Factor to Ground
  ,                                       !- Number of Vertices
  9.23, 9.23, 6.33,                       !- X,Y,Z Vertex 1 {m}
  -0.6, 19.06, 3.05,                      !- X,Y,Z Vertex 2 {m}
  -0.6, -0.6, 3.05;                       !- X,Y,Z Vertex 3 {m}

BuildingSurface:Detailed,
  Attic_soffit_east,                      !- Name
  Floor,                                  !- Surface Type
  ext_soffit_floor,                       !- Construction Name
  Attic,                                  !- Zone Name
  ,                                       !- Space Name
  Outdoors,                               !- Outside Boundary Condition
  ,                                       !- Outside Boundary Condition Object
  SunExposed,                             !- Sun Exposure
  WindExposed,                            !- Wind Exposure
  ,                                       !- View Factor to Ground
  ,                                       !- Number of Vertices
  28.29, 19.06, 3.05,                     !- X,Y,Z Vertex 1 {m}
  28.29, -0.6, 3.05,                      !- X,Y,Z Vertex 2 {m}
  27.69, 0, 3.05,                         !- X,Y,Z Vertex 3 {m}
  27.69, 18.46, 3.05;                     !- X,Y,Z Vertex 4 {m}

BuildingSurface:Detailed,
  Attic_soffit_north,                     !- Name
  Floor,                                  !- Surface Type
  ext_soffit_floor,                       !- Construction Name
  Attic,                                  !- Zone Name
  ,                                       !- Space Name
  Outdoors,                               !- Outside Boundary Condition
  ,                                       !- Outside Boundary Condition Object
  SunExposed,                             !- Sun Exposure
  WindExposed,                            !- Wind Exposure
  ,                                       !- View Factor to Ground
  ,                                       !- Number of Vertices
  28.29, 19.06, 3.05,                     !- X,Y,Z Vertex 1 {m}
  27.69, 18.46, 3.05,                     !- X,Y,Z Vertex 2 {m}
  0, 18.46, 3.05,                         !- X,Y,Z Vertex 3 {m}
  -0.6, 19.06, 3.05;                      !- X,Y,Z Vertex 4 {m}

BuildingSurface:Detailed,
  Attic_soffit_south,                     !- Name
  Floor,                                  !- Surface Type
  ext_soffit_floor,                       !- Construction Name
  Attic,                                  !- Zone Name
  ,                                       !- Space Name
  Outdoors,                               !- Outside Boundary Condition
  ,                                       !- Outside Boundary Condition Object
  SunExposed,                             !- Sun Exposure
  WindExposed,                            !- Wind Exposure
  ,                                       !- View Factor to Ground
  ,                                       !- Number of Vertices
  27.69, 0, 3.05,                         !- X,Y,Z Vertex 1 {m}
  28.29, -0.6, 3.05,                      !- X,Y,Z Vertex 2 {m}
  -0.6, -0.6, 3.05,                       !- X,Y,Z Vertex 3 {m}
  0, 0, 3.05;                             !- X,Y,Z Vertex 4 {m}

BuildingSurface:Detailed,
  Attic_soffit_west,                      !- Name
  Floor,                                  !- Surface Type
  ext_soffit_floor,                       !- Construction Name
  Attic,                                  !- Zone Name
  ,                                       !- Space Name
  Outdoors,                               !- Outside Boundary Condition
  ,                                       !- Outside Boundary Condition Object
  SunExposed,                             !- Sun Exposure
  WindExposed,                            !- Wind Exposure
  ,                                       !- View Factor to Ground
  ,                                       !- Number of Vertices
  -0.6, 19.06, 3.05,                      !- X,Y,Z Vertex 1 {m}
  0, 18.46, 3.05,                         !- X,Y,Z Vertex 2 {m}
  0, 0, 3.05,                             !- X,Y,Z Vertex 3 {m}
  -0.6, -0.6, 3.05;                       !- X,Y,Z Vertex 4 {m}

ZoneInfiltration:DesignFlowRate,
  Attic_Infiltration,                     !- Name
  Attic,                                  !- Zone or ZoneList Name
  ALWAYS_ON,                              !- Schedule Name
  Flow/Zone,                              !- Design Flow Rate Calculation Method
  0.2001,                                 !- Design Flow Rate {m3/s}
  ,                                       !- Flow per Zone Floor Area {m3/s-m2}
  ,                                       !- Flow per Exterior Surface Area {m3/s-m2}
  ,                                       !- Air Changes per Hour {1/hr}
  1,                                      !- Constant Term Coefficient
  0,                                      !- Temperature Term Coefficient
  0,                                      !- Velocity Term Coefficient
  0;                                      !- Velocity Squared Term Coefficient

Zone,
  Core_ZN,                                !- Name
  0,                                      !- Direction of Relative North {deg}
  0,                                      !- X Origin {m}
  0,                                      !- Y Origin {m}
  0,                                      !- Z Origin {m}
  ,                                       !- Type
  1,                                      !- Multiplier
  ,                                       !- Ceiling Height {m}
  ,                                       !- Volume {m3}
  ,                                       !- Floor Area {m2}
  ,                                       !- Zone Inside Convection Algorithm
  ,                                       !- Zone Outside Convection Algorithm
  Yes;                                    !- Part of Total Floor Area

BuildingSurface:Detailed,
  Core_ZN_ceiling,                        !- Name
  Ceiling,                                !- Surface Type
  nonres_roof,                            !- Construction Name
  Core_ZN,                                !- Zone Name
  ,                                       !- Space Name
  Surface,                                !- Outside Boundary Condition
  Attic_floor_core,                       !- Outside Boundary Condition Object
  NoSun,                                  !- Sun Exposure
  NoWind,                                 !- Wind Exposure
  ,                                       !- View Factor to Ground
  ,                                       !- Number of Vertices
  22.69, 5, 3.05,                         !- X,Y,Z Vertex 1 {m}
  22.69, 13.46, 3.05,                     !- X,Y,Z Vertex 2 {m}
  5, 13.46, 3.05,                         !- X,Y,Z Vertex 3 {m}
  5, 5, 3.05;                             !- X,Y,Z Vertex 4 {m}

BuildingSurface:Detailed,
  Core_ZN_floor,                          !- Name
  Floor,                                  !- Surface Type
  90.1-1999 Nonres B17 Ext Slab Unheated - 8in Slab with Carpet, !- Construction Name
  Core_ZN,                                !- Zone Name
  ,                                       !- Space Name
  Ground,                                 !- Outside Boundary Condition
  ,                                       !- Outside Boundary Condition Object
  NoSun,                                  !- Sun Exposure
  NoWind,                                 !- Wind Exposure
  ,                                       !- View Factor to Ground
  ,                                       !- Number of Vertices
  22.69, 13.46, 0,                        !- X,Y,Z Vertex 1 {m}
  22.69, 5, 0,                            !- X,Y,Z Vertex 2 {m}
  5, 5, 0,                                !- X,Y,Z Vertex 3 {m}
  5, 13.46, 0;                            !- X,Y,Z Vertex 4 {m}

BuildingSurface:Detailed,
  Core_ZN_wall_east,                      !- Name
  Wall,                                   !- Surface Type
  int_wall,                               !- Construction Name
  Core_ZN,                                !- Zone Name
  ,                                       !- Space Name
  Surface,                                !- Outside Boundary Condition
  Perimeter_ZN_2_wall_west,               !- Outside Boundary Condition Object
  NoSun,                                  !- Sun Exposure
  NoWind,                                 !- Wind Exposure